[TITLE]
;;Project Title/Notes

[OPTIONS]
;;Option             Value
FLOW_UNITS           CMS
INFILTRATION         HORTON
FLOW_ROUTING         DYNWAVE
LINK_OFFSETS         DEPTH
MIN_SLOPE            0
ALLOW_PONDING        NO
SKIP_STEADY_STATE    NO

START_DATE           10/28/2011
START_TIME           00:00:00
REPORT_START_DATE    10/28/2011
REPORT_START_TIME    00:00:00
END_DATE             10/28/2011
END_TIME             06:00:00
SWEEP_START          01/01
SWEEP_END            12/31
DRY_DAYS             0
REPORT_STEP          00:01:00
WET_STEP             00:01:00
DRY_STEP             00:01:00
ROUTING_STEP         0:00:30 

INERTIAL_DAMPING     PARTIAL
NORMAL_FLOW_LIMITED  SLOPE
FORCE_MAIN_EQUATION  H-W
VARIABLE_STEP        0.75
LENGTHENING_STEP     0
MIN_SURFAREA         1.14
MAX_TRIALS           8
HEAD_TOLERANCE       0.0015
SYS_FLOW_TOL         5
LAT_FLOW_TOL         5
MINIMUM_STEP         0.5
THREADS              1

[EVAPORATION]
;;Data Source    Parameters
;;-------------- ----------------
CONSTANT         0.0
DRY_ONLY         NO

[RAINGAGES]
;;Name           Format    Interval SCF      Source    
;;-------------- --------- ------ ------ ----------
R5               CUMULATIVE 0:01     1.0      TIMESERIES R5              
R10              CUMULATIVE 0:01     1.0      TIMESERIES R10             
R20              CUMULATIVE 0:01     1.0      TIMESERIES R20             

[SUBCATCHMENTS]
;;Name           Rain Gage        Outlet           Area     %Imperv  Width    %Slope   CurbLen  SnowPack        
;;-------------- ---------------- ---------------- -------- -------- -------- -------- -------- ----------------
                    
subcatchment1424 R20              outfall          0.09     5        300      1.0      3                        
subcatchment1425 R20              subcatchment1424 0.09     5        300      20.314   3                        
       

[SUBAREAS]
;;Subcatchment   N-Imperv   N-Perv     S-Imperv   S-Perv     PctZero    RouteTo    PctRouted 
;;-------------- ---------- ---------- ---------- ---------- ---------- ---------- ----------
subcatchment7    0.01       0.1        0.05       0.05       25         OUTLET    
subcatchment8    0.01       0.1        0.05       0.05       25         OUTLET    
subcatchment9    0.01       0.1        0.05       0.05       25         OUTLET    
subcatchment10   0.01       0.1        0.05       0.05       25         OUTLET    
subcatchment11   0.01       0.1        0.05       0.05       25         OUTLET    
subcatchment12   0.01       0.1        0.05       0.05       25         OUTLET    
subcatchment13   0.01       0.1        0.05       0.05       25         OUTLET    
subcatchment14   0.01       0.1        0.05       0.05       25         OUTLET    
subcatchment15   0.01       0.1        0.05       0.05       25         OUTLET    
subcatchment16   0.01       0.1        0.05       0.05       25         OUTLET    
subcatchment17   0.01       0.1        0.05       0.05       25         OUTLET    
subcatchment18   0.01       0.1        0.05       0.05       25         OUTLET    
subcatchment19   0.01       0.1        0.05       0.05       25         OUTLET    
subcatchment20   0.01       0.1        0.05       0.05       25         OUTLET    
subcatchment21   0.01       0.1        0.05       0.05       25         OUTLET    
subcatchment22   0.01       0.1        0.05       0.05       25         OUTLET    
subcatchment41   0.01       0.1        0.05       0.05       25         OUTLET    
subcatchment42   0.01       0.1        0.05       0.05       25         OUTLET    
subcatchment43   0.01       0.1        0.05       0.05       25         OUTLET    
subcatchment44   0.01       0.1        0.05       0.05       25         OUTLET    
subcatchment45   0.01       0.1        0.05       0.05       25         OUTLET    
subcatchment46   0.01       0.1        0.05       0.05       25         OUTLET    
subcatchment47   0.01       0.1        0.05       0.05       25         OUTLET    
subcatchment48   0.01       0.1        0.05       0.05       25         OUTLET    
subcatchment49   0.01       0.1        0.05       0.05       25         OUTLET    
subcatchment50   0.01       0.1        0.05       0.05       25         OUTLET    
subcatchment51   0.01       0.1        0.05       0.05       25         OUTLET    
subcatchment52   0.01       0.1        0.05       0.05       25         OUTLET    
subcatchment53   0.01       0.1        0.05       0.05       25         OUTLET    
subcatchment54   0.01       0.1        0.05       0.05       25         OUTLET    
subcatchment55   0.01       0.1        0.05       0.05       25         OUTLET    
subcatchment56   0.01       0.1        0.05       0.05       25         OUTLET    
subcatchment57   0.01       0.1        0.05       0.05       25         OUTLET    
subcatchment58   0.01       0.1        0.05       0.05       25         OUTLET    
subcatchment59   0.01       0.1        0.05       0.05       25         OUTLET    
subcatchment60   0.01       0.1        0.05       0.05       25         OUTLET    
subcatchment61   0.01       0.1        0.05       0.05       25         OUTLET    
subcatchment62   0.01       0.1        0.05       0.05       25         OUTLET    
subcatchment63   0.01       0.1        0.05       0.05       25         OUTLET    
subcatchment79   0.01       0.1        0.05       0.05       25         OUTLET    
subcatchment80   0.01       0.1        0.05       0.05       25         OUTLET    
subcatchment81   0.01       0.1        0.05       0.05       25         OUTLET    
subcatchment82   0.01       0.1        0.05       0.05       25         OUTLET    
subcatchment83   0.01       0.1        0.05       0.05       25         OUTLET    
subcatchment84   0.01       0.1        0.05       0.05       25         OUTLET    
subcatchment85   0.01       0.1        0.05       0.05       25         OUTLET    
subcatchment86   0.01       0.1        0.05       0.05       25         OUTLET    
subcatchment87   0.01       0.1        0.05       0.05       25         OUTLET    
subcatchment88   0.01       0.1        0.05       0.05       25         OUTLET    
subcatchment89   0.01       0.1        0.05       0.05       25         OUTLET    
subcatchment90   0.01       0.1        0.05       0.05       25         OUTLET    
subcatchment91   0.01       0.1        0.05       0.05       25         OUTLET    
subcatchment92   0.01       0.1        0.05       0.05       25         OUTLET    
subcatchment93   0.01       0.1        0.05       0.05       25         OUTLET    
subcatchment94   0.01       0.1        0.05       0.05       25         OUTLET    
subcatchment95   0.01       0.1        0.05       0.05       25         OUTLET    
subcatchment96   0.01       0.1        0.05       0.05       25         OUTLET    
subcatchment97   0.01       0.1        0.05       0.05       25         OUTLET    
subcatchment98   0.01       0.1        0.05       0.05       25         OUTLET    
subcatchment99   0.01       0.1        0.05       0.05       25         OUTLET    
subcatchment100  0.01       0.1        0.05       0.05       25         OUTLET    
subcatchment101  0.01       0.1        0.05       0.05       25         OUTLET    
subcatchment102  0.01       0.1        0.05       0.05       25         OUTLET    
subcatchment117  0.01       0.1        0.05       0.05       25         OUTLET    
subcatchment118  0.01       0.1        0.05       0.05       25         OUTLET    
subcatchment119  0.01       0.1        0.05       0.05       25         OUTLET    
subcatchment120  0.01       0.1        0.05       0.05       25         OUTLET    
subcatchment121  0.01       0.1        0.05       0.05       25         OUTLET    
subcatchment122  0.01       0.1        0.05       0.05       25         OUTLET    
subcatchment123  0.01       0.1        0.05       0.05       25         OUTLET    
subcatchment124  0.01       0.1        0.05       0.05       25         OUTLET    
subcatchment125  0.01       0.1        0.05       0.05       25         OUTLET    
subcatchment126  0.01       0.1        0.05       0.05       25         OUTLET    
subcatchment127  0.01       0.1        0.05       0.05       25         OUTLET    
subcatchment128  0.01       0.1        0.05       0.05       25         OUTLET    
subcatchment129  0.01       0.1        0.05       0.05       25         OUTLET    
subcatchment130  0.01       0.1        0.05       0.05       25         OUTLET    
subcatchment131  0.01       0.1        0.05       0.05       25         OUTLET    
subcatchment132  0.01       0.1        0.05       0.05       25         OUTLET    
subcatchment133  0.01       0.1        0.05       0.05       25         OUTLET    
subcatchment134  0.01       0.1        0.05       0.05       25         OUTLET    
subcatchment135  0.01       0.1        0.05       0.05       25         OUTLET    
subcatchment136  0.01       0.1        0.05       0.05       25         OUTLET    
subcatchment137  0.01       0.1        0.05       0.05       25         OUTLET    
subcatchment138  0.01       0.1        0.05       0.05       25         OUTLET    
subcatchment139  0.01       0.1        0.05       0.05       25         OUTLET    
subcatchment140  0.01       0.1        0.05       0.05       25         OUTLET    
subcatchment154  0.01       0.1        0.05       0.05       25         OUTLET    
subcatchment155  0.01       0.1        0.05       0.05       25         OUTLET    
subcatchment156  0.01       0.1        0.05       0.05       25         OUTLET    
subcatchment157  0.01       0.1        0.05       0.05       25         OUTLET    
subcatchment158  0.01       0.1        0.05       0.05       25         OUTLET    
subcatchment159  0.01       0.1        0.05       0.05       25         OUTLET    
subcatchment160  0.01       0.1        0.05       0.05       25         OUTLET    
subcatchment161  0.01       0.1        0.05       0.05       25         OUTLET    
subcatchment162  0.01       0.1        0.05       0.05       25         OUTLET    
subcatchment163  0.01       0.1        0.05       0.05       25         OUTLET    
subcatchment164  0.01       0.1        0.05       0.05       25         OUTLET    
subcatchment165  0.01       0.1        0.05       0.05       25         OUTLET    
subcatchment166  0.01       0.1        0.05       0.05       25         OUTLET    
subcatchment167  0.01       0.1        0.05       0.05       25         OUTLET    
subcatchment168  0.01       0.1        0.05       0.05       25         OUTLET    
subcatchment169  0.01       0.1        0.05       0.05       25         OUTLET    
subcatchment170  0.01       0.1        0.05       0.05       25         OUTLET    
subcatchment171  0.01       0.1        0.05       0.05       25         OUTLET    
subcatchment172  0.01       0.1        0.05       0.05       25         OUTLET    
subcatchment173  0.01       0.1        0.05       0.05       25         OUTLET    
subcatchment174  0.01       0.1        0.05       0.05       25         OUTLET    
subcatchment175  0.01       0.1        0.05       0.05       25         OUTLET    
subcatchment176  0.01       0.1        0.05       0.05       25         OUTLET    
subcatchment177  0.01       0.1        0.05       0.05       25         OUTLET    
subcatchment178  0.01       0.1        0.05       0.05       25         OUTLET    
subcatchment179  0.01       0.1        0.05       0.05       25         OUTLET    
subcatchment192  0.01       0.1        0.05       0.05       25         OUTLET    
subcatchment193  0.01       0.1        0.05       0.05       25         OUTLET    
subcatchment194  0.01       0.1        0.05       0.05       25         OUTLET    
subcatchment195  0.01       0.1        0.05       0.05       25         OUTLET    
subcatchment196  0.01       0.1        0.05       0.05       25         OUTLET    
subcatchment197  0.01       0.1        0.05       0.05       25         OUTLET    
subcatchment198  0.01       0.1        0.05       0.05       25         OUTLET    
subcatchment199  0.01       0.1        0.05       0.05       25         OUTLET    
subcatchment200  0.01       0.1        0.05       0.05       25         OUTLET    
subcatchment201  0.01       0.1        0.05       0.05       25         OUTLET    
subcatchment202  0.01       0.1        0.05       0.05       25         OUTLET    
subcatchment203  0.01       0.1        0.05       0.05       25         OUTLET    
subcatchment204  0.01       0.1        0.05       0.05       25         OUTLET    
subcatchment205  0.01       0.1        0.05       0.05       25         OUTLET    
subcatchment206  0.01       0.1        0.05       0.05       25         OUTLET    
subcatchment207  0.01       0.1        0.05       0.05       25         OUTLET    
subcatchment208  0.01       0.1        0.05       0.05       25         OUTLET    
subcatchment209  0.01       0.1        0.05       0.05       25         OUTLET    
subcatchment210  0.01       0.1        0.05       0.05       25         OUTLET    
subcatchment211  0.01       0.1        0.05       0.05       25         OUTLET    
subcatchment212  0.01       0.1        0.05       0.05       25         OUTLET    
subcatchment213  0.01       0.1        0.05       0.05       25         OUTLET    
subcatchment214  0.01       0.1        0.05       0.05       25         OUTLET    
subcatchment215  0.01       0.1        0.05       0.05       25         OUTLET    
subcatchment216  0.01       0.1        0.05       0.05       25         OUTLET    
subcatchment217  0.01       0.1        0.05       0.05       25         OUTLET    
subcatchment218  0.01       0.1        0.05       0.05       25         OUTLET    
subcatchment230  0.01       0.1        0.05       0.05       25         OUTLET    
subcatchment231  0.01       0.1        0.05       0.05       25         OUTLET    
subcatchment232  0.01       0.1        0.05       0.05       25         OUTLET    
subcatchment233  0.01       0.1        0.05       0.05       25         OUTLET    
subcatchment234  0.01       0.1        0.05       0.05       25         OUTLET    
subcatchment235  0.01       0.1        0.05       0.05       25         OUTLET    
subcatchment236  0.01       0.1        0.05       0.05       25         OUTLET    
subcatchment237  0.01       0.1        0.05       0.05       25         OUTLET    
subcatchment238  0.01       0.1        0.05       0.05       25         OUTLET    
subcatchment239  0.01       0.1        0.05       0.05       25         OUTLET    
subcatchment240  0.01       0.1        0.05       0.05       25         OUTLET    
subcatchment241  0.01       0.1        0.05       0.05       25         OUTLET    
subcatchment242  0.01       0.1        0.05       0.05       25         OUTLET    
subcatchment243  0.01       0.1        0.05       0.05       25         OUTLET    
subcatchment244  0.01       0.1        0.05       0.05       25         OUTLET    
subcatchment245  0.01       0.1        0.05       0.05       25         OUTLET    
subcatchment246  0.01       0.1        0.05       0.05       25         OUTLET    
subcatchment247  0.01       0.1        0.05       0.05       25         OUTLET    
subcatchment248  0.01       0.1        0.05       0.05       25         OUTLET    
subcatchment249  0.01       0.1        0.05       0.05       25         OUTLET    
subcatchment250  0.01       0.1        0.05       0.05       25         OUTLET    
subcatchment251  0.01       0.1        0.05       0.05       25         OUTLET    
subcatchment252  0.01       0.1        0.05       0.05       25         OUTLET    
subcatchment253  0.01       0.1        0.05       0.05       25         OUTLET    
subcatchment254  0.01       0.1        0.05       0.05       25         OUTLET    
subcatchment255  0.01       0.1        0.05       0.05       25         OUTLET    
subcatchment256  0.01       0.1        0.05       0.05       25         OUTLET    
subcatchment268  0.01       0.1        0.05       0.05       25         OUTLET    
subcatchment269  0.01       0.1        0.05       0.05       25         OUTLET    
subcatchment270  0.01       0.1        0.05       0.05       25         OUTLET    
subcatchment271  0.01       0.1        0.05       0.05       25         OUTLET    
subcatchment272  0.01       0.1        0.05       0.05       25         OUTLET    
subcatchment273  0.01       0.1        0.05       0.05       25         OUTLET    
subcatchment274  0.01       0.1        0.05       0.05       25         OUTLET    
subcatchment275  0.01       0.1        0.05       0.05       25         OUTLET    
subcatchment276  0.01       0.1        0.05       0.05       25         OUTLET    
subcatchment277  0.01       0.1        0.05       0.05       25         OUTLET    
subcatchment278  0.01       0.1        0.05       0.05       25         OUTLET    
subcatchment279  0.01       0.1        0.05       0.05       25         OUTLET    
subcatchment280  0.01       0.1        0.05       0.05       25         OUTLET    
subcatchment281  0.01       0.1        0.05       0.05       25         OUTLET    
subcatchment282  0.01       0.1        0.05       0.05       25         OUTLET    
subcatchment283  0.01       0.1        0.05       0.05       25         OUTLET    
subcatchment284  0.01       0.1        0.05       0.05       25         OUTLET    
subcatchment285  0.01       0.1        0.05       0.05       25         OUTLET    
subcatchment286  0.01       0.1        0.05       0.05       25         OUTLET    
subcatchment287  0.01       0.1        0.05       0.05       25         OUTLET    
subcatchment288  0.01       0.1        0.05       0.05       25         OUTLET    
subcatchment289  0.01       0.1        0.05       0.05       25         OUTLET    
subcatchment290  0.01       0.1        0.05       0.05       25         OUTLET    
subcatchment291  0.01       0.1        0.05       0.05       25         OUTLET    
subcatchment292  0.01       0.1        0.05       0.05       25         OUTLET    
subcatchment293  0.01       0.1        0.05       0.05       25         OUTLET    
subcatchment294  0.01       0.1        0.05       0.05       25         OUTLET    
subcatchment295  0.01       0.1        0.05       0.05       25         OUTLET    
subcatchment306  0.01       0.1        0.05       0.05       25         OUTLET    
subcatchment307  0.01       0.1        0.05       0.05       25         OUTLET    
subcatchment308  0.01       0.1        0.05       0.05       25         OUTLET    
subcatchment309  0.01       0.1        0.05       0.05       25         OUTLET    
subcatchment310  0.01       0.1        0.05       0.05       25         OUTLET    
subcatchment311  0.01       0.1        0.05       0.05       25         OUTLET    
subcatchment312  0.01       0.1        0.05       0.05       25         OUTLET    
subcatchment313  0.01       0.1        0.05       0.05       25         OUTLET    
subcatchment314  0.01       0.1        0.05       0.05       25         OUTLET    
subcatchment315  0.01       0.1        0.05       0.05       25         OUTLET    
subcatchment316  0.01       0.1        0.05       0.05       25         OUTLET    
subcatchment317  0.01       0.1        0.05       0.05       25         OUTLET    
subcatchment318  0.01       0.1        0.05       0.05       25         OUTLET    
subcatchment319  0.01       0.1        0.05       0.05       25         OUTLET    
subcatchment320  0.01       0.1        0.05       0.05       25         OUTLET    
subcatchment321  0.01       0.1        0.05       0.05       25         OUTLET    
subcatchment322  0.01       0.1        0.05       0.05       25         OUTLET    
subcatchment323  0.01       0.1        0.05       0.05       25         OUTLET    
subcatchment324  0.01       0.1        0.05       0.05       25         OUTLET    
subcatchment325  0.01       0.1        0.05       0.05       25         OUTLET    
subcatchment326  0.01       0.1        0.05       0.05       25         OUTLET    
subcatchment327  0.01       0.1        0.05       0.05       25         OUTLET    
subcatchment328  0.01       0.1        0.05       0.05       25         OUTLET    
subcatchment329  0.01       0.1        0.05       0.05       25         OUTLET    
subcatchment330  0.01       0.1        0.05       0.05       25         OUTLET    
subcatchment331  0.01       0.1        0.05       0.05       25         OUTLET    
subcatchment332  0.01       0.1        0.05       0.05       25         OUTLET    
subcatchment333  0.01       0.1        0.05       0.05       25         OUTLET    
subcatchment343  0.01       0.1        0.05       0.05       25         OUTLET    
subcatchment344  0.01       0.1        0.05       0.05       25         OUTLET    
subcatchment345  0.01       0.1        0.05       0.05       25         OUTLET    
subcatchment346  0.01       0.1        0.05       0.05       25         OUTLET    
subcatchment347  0.01       0.1        0.05       0.05       25         OUTLET    
subcatchment348  0.01       0.1        0.05       0.05       25         OUTLET    
subcatchment349  0.01       0.1        0.05       0.05       25         OUTLET    
subcatchment350  0.01       0.1        0.05       0.05       25         OUTLET    
subcatchment351  0.01       0.1        0.05       0.05       25         OUTLET    
subcatchment352  0.01       0.1        0.05       0.05       25         OUTLET    
subcatchment353  0.01       0.1        0.05       0.05       25         OUTLET    
subcatchment354  0.01       0.1        0.05       0.05       25         OUTLET    
subcatchment355  0.01       0.1        0.05       0.05       25         OUTLET    
subcatchment356  0.01       0.1        0.05       0.05       25         OUTLET    
subcatchment357  0.01       0.1        0.05       0.05       25         OUTLET    
subcatchment358  0.01       0.1        0.05       0.05       25         OUTLET    
subcatchment359  0.01       0.1        0.05       0.05       25         OUTLET    
subcatchment360  0.01       0.1        0.05       0.05       25         OUTLET    
subcatchment361  0.01       0.1        0.05       0.05       25         OUTLET    
subcatchment362  0.01       0.1        0.05       0.05       25         OUTLET    
subcatchment363  0.01       0.1        0.05       0.05       25         OUTLET    
subcatchment364  0.01       0.1        0.05       0.05       25         OUTLET    
subcatchment365  0.01       0.1        0.05       0.05       25         OUTLET    
subcatchment366  0.01       0.1        0.05       0.05       25         OUTLET    
subcatchment367  0.01       0.1        0.05       0.05       25         OUTLET    
subcatchment368  0.01       0.1        0.05       0.05       25         OUTLET    
subcatchment369  0.01       0.1        0.05       0.05       25         OUTLET    
subcatchment370  0.01       0.1        0.05       0.05       25         OUTLET    
subcatchment371  0.01       0.1        0.05       0.05       25         OUTLET    
subcatchment372  0.01       0.1        0.05       0.05       25         OUTLET    
subcatchment381  0.01       0.1        0.05       0.05       25         OUTLET    
subcatchment382  0.01       0.1        0.05       0.05       25         OUTLET    
subcatchment383  0.01       0.1        0.05       0.05       25         OUTLET    
subcatchment384  0.01       0.1        0.05       0.05       25         OUTLET    
subcatchment385  0.01       0.1        0.05       0.05       25         OUTLET    
subcatchment386  0.01       0.1        0.05       0.05       25         OUTLET    
subcatchment387  0.01       0.1        0.05       0.05       25         OUTLET    
subcatchment388  0.01       0.1        0.05       0.05       25         OUTLET    
subcatchment389  0.01       0.1        0.05       0.05       25         OUTLET    
subcatchment390  0.01       0.1        0.05       0.05       25         OUTLET    
subcatchment391  0.01       0.1        0.05       0.05       25         OUTLET    
subcatchment392  0.01       0.1        0.05       0.05       25         OUTLET    
subcatchment393  0.01       0.1        0.05       0.05       25         OUTLET    
subcatchment394  0.01       0.1        0.05       0.05       25         OUTLET    
subcatchment395  0.01       0.1        0.05       0.05       25         OUTLET    
subcatchment396  0.01       0.1        0.05       0.05       25         OUTLET    
subcatchment397  0.01       0.1        0.05       0.05       25         OUTLET    
subcatchment398  0.01       0.1        0.05       0.05       25         OUTLET    
subcatchment399  0.01       0.1        0.05       0.05       25         OUTLET    
subcatchment400  0.01       0.1        0.05       0.05       25         OUTLET    
subcatchment401  0.01       0.1        0.05       0.05       25         OUTLET    
subcatchment402  0.01       0.1        0.05       0.05       25         OUTLET    
subcatchment403  0.01       0.1        0.05       0.05       25         OUTLET    
subcatchment404  0.01       0.1        0.05       0.05       25         OUTLET    
subcatchment405  0.01       0.1        0.05       0.05       25         OUTLET    
subcatchment406  0.01       0.1        0.05       0.05       25         OUTLET    
subcatchment407  0.01       0.1        0.05       0.05       25         OUTLET    
subcatchment408  0.01       0.1        0.05       0.05       25         OUTLET    
subcatchment409  0.01       0.1        0.05       0.05       25         OUTLET    
subcatchment410  0.01       0.1        0.05       0.05       25         OUTLET    
subcatchment419  0.01       0.1        0.05       0.05       25         OUTLET    
subcatchment420  0.01       0.1        0.05       0.05       25         OUTLET    
subcatchment421  0.01       0.1        0.05       0.05       25         OUTLET    
subcatchment422  0.01       0.1        0.05       0.05       25         OUTLET    
subcatchment423  0.01       0.1        0.05       0.05       25         OUTLET    
subcatchment424  0.01       0.1        0.05       0.05       25         OUTLET    
subcatchment425  0.01       0.1        0.05       0.05       25         OUTLET    
subcatchment426  0.01       0.1        0.05       0.05       25         OUTLET    
subcatchment427  0.01       0.1        0.05       0.05       25         OUTLET    
subcatchment428  0.01       0.1        0.05       0.05       25         OUTLET    
subcatchment429  0.01       0.1        0.05       0.05       25         OUTLET    
subcatchment430  0.01       0.1        0.05       0.05       25         OUTLET    
subcatchment431  0.01       0.1        0.05       0.05       25         OUTLET    
subcatchment432  0.01       0.1        0.05       0.05       25         OUTLET    
subcatchment433  0.01       0.1        0.05       0.05       25         OUTLET    
subcatchment434  0.01       0.1        0.05       0.05       25         OUTLET    
subcatchment435  0.01       0.1        0.05       0.05       25         OUTLET    
subcatchment436  0.01       0.1        0.05       0.05       25         OUTLET    
subcatchment437  0.01       0.1        0.05       0.05       25         OUTLET    
subcatchment438  0.01       0.1        0.05       0.05       25         OUTLET    
subcatchment439  0.01       0.1        0.05       0.05       25         OUTLET    
subcatchment440  0.01       0.1        0.05       0.05       25         OUTLET    
subcatchment441  0.01       0.1        0.05       0.05       25         OUTLET    
subcatchment442  0.01       0.1        0.05       0.05       25         OUTLET    
subcatchment443  0.01       0.1        0.05       0.05       25         OUTLET    
subcatchment444  0.01       0.1        0.05       0.05       25         OUTLET    
subcatchment445  0.01       0.1        0.05       0.05       25         OUTLET    
subcatchment446  0.01       0.1        0.05       0.05       25         OUTLET    
subcatchment447  0.01       0.1        0.05       0.05       25         OUTLET    
subcatchment448  0.01       0.1        0.05       0.05       25         OUTLET    
subcatchment449  0.01       0.1        0.05       0.05       25         OUTLET    
subcatchment457  0.01       0.1        0.05       0.05       25         OUTLET    
subcatchment458  0.01       0.1        0.05       0.05       25         OUTLET    
subcatchment459  0.01       0.1        0.05       0.05       25         OUTLET    
subcatchment460  0.01       0.1        0.05       0.05       25         OUTLET    
subcatchment461  0.01       0.1        0.05       0.05       25         OUTLET    
subcatchment462  0.01       0.1        0.05       0.05       25         OUTLET    
subcatchment463  0.01       0.1        0.05       0.05       25         OUTLET    
subcatchment464  0.01       0.1        0.05       0.05       25         OUTLET    
subcatchment465  0.01       0.1        0.05       0.05       25         OUTLET    
subcatchment466  0.01       0.1        0.05       0.05       25         OUTLET    
subcatchment467  0.01       0.1        0.05       0.05       25         OUTLET    
subcatchment468  0.01       0.1        0.05       0.05       25         OUTLET    
subcatchment469  0.01       0.1        0.05       0.05       25         OUTLET    
subcatchment470  0.01       0.1        0.05       0.05       25         OUTLET    
subcatchment471  0.01       0.1        0.05       0.05       25         OUTLET    
subcatchment472  0.01       0.1        0.05       0.05       25         OUTLET    
subcatchment473  0.01       0.1        0.05       0.05       25         OUTLET    